/*--------------------------------*- C++ -*----------------------------------*\
  =========                 |
  \\      /  F ield         | OpenFOAM: The Open Source CFD Toolbox
   \\    /   O peration     | Website:  https://openfoam.org
    \\  /    A nd           | Version:  12
     \\/     M anipulation  |
\*---------------------------------------------------------------------------*/
FoamFile
{
    format      binary;
    class       polyBoundaryMesh;
    location    "constant/polyMesh";
    object      boundary;
}
// * * * * * * * * * * * * * * * * * * * * * * * * * * * * * * * * * * * * * //

9
(
    front
    {
        type            wedge;
        inGroups        List<word> 1(wedge);
        nFaces          13500;
        startFace       26648;
    }
    back
    {
        type            wedge;
        inGroups        List<word> 1(wedge);
        nFaces          13500;
        startFace       40148;
    }
    outlet
    {
        type            patch;
        nFaces          60;
        startFace       53648;
    }
    inlet
    {
        type            patch;
        nFaces          49;
        startFace       53708;
    }
    base
    {
        type            wall;
        inGroups        List<word> 1(wall);
        nFaces          60;
        startFace       53757;
    }
    ogive
    {
        type            wall;
        inGroups        List<word> 1(wall);
        nFaces          0;
        startFace       53817;
    }
    procBoundary1to0
    {
        type            processor;
        inGroups        List<word> 1(processor);
        nFaces          142;
        startFace       53817;
        matchTolerance  0.0001;
        myProcNo        1;
        neighbProcNo    0;
    }
    procBoundary1to2
    {
        type            processor;
        inGroups        List<word> 1(processor);
        nFaces          108;
        startFace       53959;
        matchTolerance  0.0001;
        myProcNo        1;
        neighbProcNo    2;
    }
    procBoundary1to3
    {
        type            processor;
        inGroups        List<word> 1(processor);
        nFaces          135;
        startFace       54067;
        matchTolerance  0.0001;
        myProcNo        1;
        neighbProcNo    3;
    }
)

// ************************************************************************* //
