/*--------------------------------*- C++ -*----------------------------------*\
  =========                 |
  \\      /  F ield         | OpenFOAM: The Open Source CFD Toolbox
   \\    /   O peration     | Website:  https://openfoam.org
    \\  /    A nd           | Version:  12
     \\/     M anipulation  |
\*---------------------------------------------------------------------------*/
FoamFile
{
    format      binary;
    class       polyBoundaryMesh;
    location    "constant/polyMesh";
    object      boundary;
}
// * * * * * * * * * * * * * * * * * * * * * * * * * * * * * * * * * * * * * //

8
(
    front
    {
        type            wedge;
        inGroups        List<word> 1(wedge);
        nFaces          13500;
        startFace       26765;
    }
    back
    {
        type            wedge;
        inGroups        List<word> 1(wedge);
        nFaces          13500;
        startFace       40265;
    }
    outlet
    {
        type            patch;
        nFaces          100;
        startFace       53765;
    }
    inlet
    {
        type            patch;
        nFaces          135;
        startFace       53865;
    }
    base
    {
        type            wall;
        inGroups        List<word> 1(wall);
        nFaces          0;
        startFace       54000;
    }
    ogive
    {
        type            wall;
        inGroups        List<word> 1(wall);
        nFaces          0;
        startFace       54000;
    }
    procBoundary3to1
    {
        type            processor;
        inGroups        List<word> 1(processor);
        nFaces          135;
        startFace       54000;
        matchTolerance  0.0001;
        myProcNo        3;
        neighbProcNo    1;
    }
    procBoundary3to2
    {
        type            processor;
        inGroups        List<word> 1(processor);
        nFaces          100;
        startFace       54135;
        matchTolerance  0.0001;
        myProcNo        3;
        neighbProcNo    2;
    }
)

// ************************************************************************* //
