/*--------------------------------*- C++ -*----------------------------------*\
  =========                 |
  \\      /  F ield         | OpenFOAM: The Open Source CFD Toolbox
   \\    /   O peration     | Website:  https://openfoam.org
    \\  /    A nd           | Version:  12
     \\/     M anipulation  |
\*---------------------------------------------------------------------------*/
FoamFile
{
    format      binary;
    class       polyBoundaryMesh;
    location    "constant/polyMesh";
    object      boundary;
}
// * * * * * * * * * * * * * * * * * * * * * * * * * * * * * * * * * * * * * //

8
(
    front
    {
        type            wedge;
        inGroups        List<word> 1(wedge);
        nFaces          13500;
        startFace       26720;
    }
    back
    {
        type            wedge;
        inGroups        List<word> 1(wedge);
        nFaces          13500;
        startFace       40220;
    }
    outlet
    {
        type            patch;
        nFaces          0;
        startFace       53720;
    }
    inlet
    {
        type            patch;
        nFaces          131;
        startFace       53720;
    }
    base
    {
        type            wall;
        inGroups        List<word> 1(wall);
        nFaces          0;
        startFace       53851;
    }
    ogive
    {
        type            wall;
        inGroups        List<word> 1(wall);
        nFaces          180;
        startFace       53851;
    }
    procBoundary0to1
    {
        type            processor;
        inGroups        List<word> 1(processor);
        nFaces          142;
        startFace       54031;
        matchTolerance  0.0001;
        myProcNo        0;
        neighbProcNo    1;
    }
    procBoundary0to2
    {
        type            processor;
        inGroups        List<word> 1(processor);
        nFaces          7;
        startFace       54173;
        matchTolerance  0.0001;
        myProcNo        0;
        neighbProcNo    2;
    }
)

// ************************************************************************* //
