/*--------------------------------*- C++ -*----------------------------------*\
| =========                 |                                                 |
| \\      /  F ield         | OpenFOAM: The Open Source CFD Toolbox           |
|  \\    /   O peration     | Version:  plus                                  |
|   \\  /    A nd           | Web:      www.OpenFOAM.com                      |
|    \\/     M anipulation  |                                                 |
\*---------------------------------------------------------------------------*/
FoamFile
{
    version     2.0;
    format      ascii;
    class       volScalarField;
    location    "0";
    object      alphat;
}
// * * * * * * * * * * * * * * * * * * * * * * * * * * * * * * * * * * * * * //

dimensions      [1 -1 -1 0 0 0 0];

internalField   uniform 0;

boundaryField
{
    inlet
    {
        type            calculated;
        value           $internalField;
    }
    
    outlet
    {
        type            calculated;
        value           $internalField;
    }

    ogive
    {
        type            compressible::alphatJayatillekeWallFunction;
        Prt             0.7;
        kappa           0.41;
        E               9.8;
        value           $internalField;// optional value entry
    }

    base
    {
        type            compressible::alphatJayatillekeWallFunction;
        Prt             0.7;
        kappa           0.41;
        E               9.8;
        value           $internalField;// optional value entry
    }

    front
    {
        type            wedge;
    }
    back
    {
        type            wedge;
    }
}


// ************************************************************************* //
