/*--------------------------------*- C++ -*----------------------------------*\
  =========                 |
  \\      /  F ield         | OpenFOAM: The Open Source CFD Toolbox
   \\    /   O peration     | Website:  https://openfoam.org
    \\  /    A nd           | Version:  12
     \\/     M anipulation  |
\*---------------------------------------------------------------------------*/
FoamFile
{
    format      ascii;
    class       volScalarField;
    object      T;
}
// * * * * * * * * * * * * * * * * * * * * * * * * * * * * * * * * * * * * * //

dimensions      [0 0 0 1 0 0 0];

internalField   uniform 82;

boundaryField
{
    front
    {
        type            empty;
    }

    back
    {
        type            empty;
    }

    inlet
    {
        type            fixedValue;
        value           uniform 82;
    }

    outlet
    {
        type            zeroGradient;
    }

    base
    {
        type            zeroGradient;
    }

    ogive
    {
        type            zeroGradient;
    }
}

// ************************************************************************* //
