/*--------------------------------*- C++ -*----------------------------------*\
  =========                 |
  \\      /  F ield         | OpenFOAM: The Open Source CFD Toolbox
   \\    /   O peration     | Website:  https://openfoam.org
    \\  /    A nd           | Version:  12
     \\/     M anipulation  |
\*---------------------------------------------------------------------------*/
FoamFile
{
    format      ascii;
    class       dictionary;
    location    "system";
    object      fvSchemes;
}
// * * * * * * * * * * * * * * * * * * * * * * * * * * * * * * * * * * * * * //

fluxScheme      Kurganov;

ddtSchemes
{
    default         localEuler;
}

gradSchemes
{
    default         cellLimited Gauss linear 1;
}

divSchemes
{
    div(phi,U) Gauss linearUpwind cellLimited Gauss linear 1;
}

laplacianSchemes
{
    default         Gauss linear limited 0.333;
}

interpolationSchemes
{
    default         linear;

    reconstruct(rho) vanLeer;
    reconstruct(U)  vanLeerV;
    reconstruct(T)  vanLeer;
}

snGradSchemes
{
    default         limited 0.333;
}


// ************************************************************************* //
